Version 4
SHEET 1 4292 680
WIRE 1536 -128 1456 -128
WIRE 1632 -128 1536 -128
WIRE 1856 -128 1632 -128
WIRE 2032 -128 1856 -128
WIRE 2176 -128 2112 -128
WIRE 2224 -128 2176 -128
WIRE 2384 -128 2224 -128
WIRE 2496 -128 2448 -128
WIRE 2592 -128 2496 -128
WIRE 2688 -128 2592 -128
WIRE 2816 -128 2688 -128
WIRE 2992 -128 2816 -128
WIRE 1456 -96 1456 -128
WIRE 1536 -96 1536 -128
WIRE 1856 -80 1856 -128
WIRE 2592 -80 2592 -128
WIRE 2688 -80 2688 -128
WIRE 2816 -80 2816 -128
WIRE 2992 -80 2992 -128
WIRE 1536 -16 1536 -32
WIRE 1632 -16 1632 -128
WIRE 1696 -16 1632 -16
WIRE 2032 -16 2016 -16
WIRE 2176 -16 2096 -16
WIRE 2224 0 2224 -128
WIRE 2592 16 2592 -16
WIRE 2688 16 2688 -16
WIRE 2816 16 2816 0
WIRE 2992 16 2992 0
WIRE 1600 80 1568 80
WIRE 1696 80 1664 80
WIRE 2064 80 2016 80
WIRE 2176 80 2144 80
WIRE 2224 112 2224 96
WIRE 2224 112 2160 112
WIRE 2224 128 2224 112
WIRE 2496 144 2496 -128
WIRE 1600 176 1568 176
WIRE 1696 176 1680 176
WIRE 2160 176 2160 112
WIRE 2160 176 2016 176
WIRE 2224 224 2224 208
WIRE 1520 272 1504 272
WIRE 1600 272 1584 272
WIRE 1696 272 1680 272
WIRE 2368 272 2016 272
WIRE 2496 272 2496 224
WIRE 2496 272 2368 272
WIRE 2496 288 2496 272
WIRE 3008 288 3008 256
WIRE 1856 352 1856 336
WIRE 2496 384 2496 368
FLAG 1568 176 0
FLAG 1856 352 0
FLAG 1504 272 0
FLAG 1568 80 0
FLAG 2176 -16 0
FLAG 2224 224 0
FLAG 2496 384 0
FLAG 1456 -16 0
FLAG 2368 272 FBX
FLAG 2592 16 0
FLAG 2592 -128 VOUT
FLAG 2176 -128 SW
FLAG 2688 16 0
FLAG 2816 16 0
FLAG 1536 -16 0
FLAG 3008 288 0
FLAG 3008 176 load
FLAG 2992 16 0
SYMBOL LT3757 1856 128 R0
SYMATTR InstName U1
SYMBOL NMOS 2176 0 R0
SYMATTR InstName Q1
SYMATTR Value PSMN059150Y
SYMBOL RES 1696 192 M270
WINDOW 0 32 56 VTop 2
WINDOW 3 0 56 VBottom 2
SYMATTR InstName R1
SYMATTR Value 17.4k
SYMBOL ind 2016 -112 R270
WINDOW 0 32 56 VTop 2
WINDOW 3 5 56 VBottom 2
SYMATTR InstName L1
SYMATTR Value 100µ
SYMATTR SpiceLine Ipk=2.25 Rser=0.25
SYMBOL res 1696 288 M270
WINDOW 0 32 56 VTop 2
WINDOW 3 0 56 VBottom 2
SYMATTR InstName R4
SYMATTR Value 22k
SYMBOL cap 1584 288 M270
WINDOW 0 32 32 VTop 2
WINDOW 3 0 32 VBottom 2
SYMATTR InstName C2
SYMATTR Value 6800p
SYMBOL VOLTAGE 1456 -112 R0
WINDOW 123 0 0 Left 2
WINDOW 39 0 0 Left 2
SYMATTR InstName V1
SYMATTR Value 12
SYMBOL polcap 2032 -32 M90
WINDOW 0 0 32 VBottom 2
WINDOW 3 32 32 VTop 2
SYMATTR InstName C3
SYMATTR Value 4.7µ
SYMBOL cap 1664 64 R90
WINDOW 0 0 32 VBottom 2
WINDOW 3 32 32 VTop 2
SYMATTR InstName C4
SYMATTR Value 0.1µ
SYMBOL res 2208 112 R0
SYMATTR InstName R7
SYMATTR Value 0.16
SYMBOL res 2480 272 R0
SYMATTR InstName R8
SYMATTR Value 1k
SYMBOL res 2480 128 R0
SYMATTR InstName R9
SYMATTR Value 36.5k
SYMBOL cap 2576 -80 R0
SYMATTR InstName C1
SYMATTR Value 1µ
SYMATTR SpiceLine V=100 Rser=0.05
SYMBOL cap 2672 -80 R0
SYMATTR InstName C5
SYMATTR Value 0.1µ
SYMATTR SpiceLine V=100 Rser=0.05
SYMBOL cap 1520 -96 R0
SYMATTR InstName C6
SYMATTR Value 10µ
SYMATTR SpiceLine Rser=.001
SYMBOL res 2160 64 R90
WINDOW 0 0 56 VBottom 2
WINDOW 3 32 56 VTop 2
SYMATTR InstName R11
SYMATTR Value 2
SYMBOL bi 2816 -80 R0
SYMATTR InstName B1
SYMATTR Value I=v(load)
SYMBOL Misc\\signal 3008 160 R0
WINDOW 123 0 0 Left 2
WINDOW 39 0 0 Left 2
SYMATTR InstName V3
SYMATTR Value PULSE(0 0.05 0.003 1u 1u 2.8m 3m)
SYMBOL diode 2384 -112 R270
WINDOW 0 32 32 VTop 2
WINDOW 3 0 32 VBottom 2
SYMATTR InstName D1
SYMATTR Value 1N4148
SYMBOL res 2976 -96 R0
SYMATTR InstName R2
SYMATTR Value 10k
TEXT 1360 192 Left 2 ;fsw = 650 kHz
TEXT 2728 112 Left 2 ;Full Load = 0.05A
TEXT 2760 272 Left 2 !.tran 30m
