Version 4
SHEET 1 1952 2496
WIRE -1232 736 -1296 736
WIRE -1296 752 -1296 736
WIRE -1232 752 -1232 736
WIRE -1696 832 -1856 832
WIRE -1392 832 -1696 832
WIRE -768 832 -1392 832
WIRE -1856 848 -1856 832
WIRE -1696 864 -1696 832
WIRE -1296 864 -1296 816
WIRE -960 864 -1296 864
WIRE -928 864 -960 864
WIRE -1392 896 -1392 832
WIRE -1296 896 -1296 864
WIRE -1696 944 -1696 928
WIRE -1856 960 -1856 928
WIRE -1472 960 -1488 960
WIRE -432 960 -1120 960
WIRE -928 976 -928 864
WIRE -1568 1056 -1584 1056
WIRE -1536 1056 -1568 1056
WIRE -1472 1056 -1536 1056
WIRE -928 1056 -928 1040
WIRE -928 1056 -1120 1056
WIRE -1536 1072 -1536 1056
WIRE -768 1072 -768 832
WIRE -1536 1152 -1568 1152
WIRE -1472 1152 -1536 1152
WIRE -1056 1152 -1120 1152
WIRE -816 1152 -1056 1152
WIRE -1472 1248 -2176 1248
WIRE -928 1248 -928 1120
WIRE -928 1248 -1120 1248
WIRE -768 1248 -768 1168
WIRE -768 1248 -928 1248
WIRE -656 1248 -768 1248
WIRE -592 1248 -656 1248
WIRE -464 1248 -512 1248
WIRE -432 1248 -432 960
WIRE -432 1248 -464 1248
WIRE -256 1248 -432 1248
WIRE -96 1248 -256 1248
WIRE 0 1248 -96 1248
WIRE -768 1264 -768 1248
WIRE -256 1264 -256 1248
WIRE -96 1264 -96 1248
WIRE 0 1264 0 1248
WIRE -1696 1344 -1760 1344
WIRE -1472 1344 -1616 1344
WIRE -1056 1344 -1120 1344
WIRE -816 1344 -1056 1344
WIRE -256 1360 -256 1328
WIRE -96 1360 -96 1328
WIRE 0 1360 0 1344
WIRE -1760 1376 -1760 1344
WIRE -768 1376 -768 1360
WIRE -1760 1440 -1808 1440
WIRE -1744 1440 -1760 1440
WIRE -1632 1440 -1680 1440
WIRE -1520 1440 -1552 1440
WIRE -1472 1440 -1520 1440
WIRE -768 1440 -1120 1440
WIRE -752 1440 -768 1440
WIRE -656 1440 -656 1248
WIRE -656 1440 -672 1440
WIRE -2176 1456 -2176 1248
WIRE -768 1456 -768 1440
WIRE -1760 1504 -1760 1440
WIRE -1696 1504 -1760 1504
WIRE -1520 1504 -1520 1440
WIRE -1520 1504 -1632 1504
WIRE -1568 1536 -1600 1536
WIRE -1472 1536 -1504 1536
WIRE -768 1536 -768 1520
WIRE -768 1536 -1120 1536
WIRE -464 1536 -464 1248
WIRE -464 1536 -768 1536
WIRE -1600 1568 -1600 1536
WIRE -1472 1632 -1504 1632
WIRE -1056 1632 -1120 1632
WIRE -464 1664 -464 1536
WIRE -400 1664 -464 1664
WIRE -464 1680 -464 1664
WIRE -400 1696 -400 1664
WIRE -1232 1728 -1232 1696
WIRE -1360 1792 -1360 1696
WIRE -640 1792 -1360 1792
WIRE -464 1792 -464 1760
WIRE -464 1792 -640 1792
WIRE -400 1792 -400 1760
WIRE -400 1792 -464 1792
WIRE -464 1824 -464 1792
WIRE -400 1840 -400 1792
WIRE -464 1920 -464 1904
WIRE -400 1920 -400 1904
WIRE -400 1920 -464 1920
WIRE -464 1952 -464 1920
FLAG -1696 944 0
FLAG -768 1376 0
FLAG -1504 1632 0
FLAG -1808 1440 0
FLAG -256 1360 0
FLAG -464 1952 0
FLAG 0 1248 OUT
FLAG -1856 960 0
FLAG 0 1360 0
FLAG -1856 832 IN
FLAG -96 1360 0
FLAG -1232 1728 0
FLAG -1056 1632 0
FLAG -1232 752 0
FLAG -1600 1568 0
FLAG -1520 1440 ITH
FLAG -656 1248 SW1
FLAG -640 1792 FB1
FLAG -1056 1344 BG1
FLAG -1056 1152 TG1
FLAG -1760 1376 0
FLAG -960 864 INTVCC
FLAG -1568 1152 INTVCC
FLAG -1568 1056 PG
FLAG -2176 1536 0
SYMBOL LTC3833 -1296 1296 R0
SYMATTR InstName U1
SYMBOL cap -912 1120 R180
WINDOW 0 46 34 Left 2
WINDOW 3 24 8 Left 2
SYMATTR InstName C1
SYMATTR Value .1µ
SYMBOL schottky -912 976 M0
WINDOW 3 54 40 Left 2
WINDOW 0 34 16 Left 2
SYMATTR Value 1N5817
SYMATTR InstName D1
SYMBOL ind -608 1264 R270
WINDOW 0 32 56 VTop 2
WINDOW 3 5 56 VBottom 2
SYMATTR InstName Lo1
SYMATTR Value 1.5µ
SYMATTR SpiceLine Rser=19.7m
SYMBOL cap -752 1456 M0
WINDOW 3 22 51 Left 2
SYMATTR Value 0.1µ
SYMATTR InstName SenseC1
SYMATTR SpiceLine Rpar=1.96k
SYMBOL res -448 1808 M0
SYMATTR InstName RfbBot1
SYMATTR Value 6.65k
SYMBOL res -448 1664 M0
SYMATTR InstName RfbTop1
SYMATTR Value 30.1k
SYMBOL cap -1680 1424 R90
WINDOW 0 0 32 VBottom 2
WINDOW 3 34 44 VTop 2
WINDOW 39 120 280 VTop 2
SYMATTR InstName C5
SYMATTR Value 5.1p
SYMBOL res -768 1424 M90
WINDOW 0 58 90 VBottom 2
WINDOW 3 73 92 VTop 2
SYMATTR InstName SenseRs1
SYMATTR Value 1.62k
SYMBOL voltage -1856 832 R0
WINDOW 123 0 0 Left 2
WINDOW 39 0 0 Left 2
SYMATTR InstName Vin1
SYMATTR Value 12V
SYMBOL current 0 1264 M0
WINDOW 3 24 88 Invisible 2
WINDOW 123 0 0 Left 2
WINDOW 39 0 0 Left 2
WINDOW 0 -135 1 Left 2
SYMATTR Value PWL(0 0 1.8m 0 1.81m 5 2.1m 5 2.11m 0 5m 0)
SYMATTR InstName LoadStep1
SYMBOL cap -384 1696 M0
WINDOW 0 -88 -6 Left 2
WINDOW 3 -96 53 Left 2
SYMATTR InstName CfbTop1
SYMATTR Value 22p
SYMBOL cap -384 1840 M0
WINDOW 0 -76 -5 Left 2
WINDOW 3 -96 54 Left 2
SYMATTR InstName CfbBot1
SYMATTR Value 0p
SYMBOL cap -1712 864 R0
WINDOW 123 25 91 Left 2
SYMATTR Value2 x1
SYMATTR InstName Cinb1
SYMATTR Value 100µ
SYMBOL cap -80 1264 M0
WINDOW 123 33 91 Left 2
SYMATTR Value2 x2
SYMATTR InstName Cob1
SYMATTR Value 330µ
SYMATTR SpiceLine Rser=7m Lser=1.7n
SYMBOL cap -240 1264 M0
WINDOW 123 36 88 Left 2
SYMATTR Value2 x2
SYMATTR InstName Coc1
SYMATTR Value 61.778724µ
SYMATTR SpiceLine Rser=1.034673667m Lser=0.85n
SYMBOL cap -1504 1520 R90
WINDOW 0 91 29 VBottom 2
WINDOW 3 32 32 VTop 2
SYMATTR InstName C2
SYMATTR Value 2n
SYMBOL nmos -816 1072 R0
WINDOW 0 -9 30 Right 2
WINDOW 3 36 105 Right 2
SYMATTR InstName Q1
SYMATTR Value BSC025N03MS
SYMBOL cap -1312 752 R0
WINDOW 0 -46 -7 Left 2
WINDOW 3 -66 15 Left 2
SYMATTR InstName C3
SYMATTR Value 4.7µ
SYMBOL cap -1632 1488 R90
WINDOW 0 0 32 VBottom 2
WINDOW 3 32 32 VTop 2
SYMATTR InstName C4
SYMATTR Value 5.1p
SYMBOL res -1536 1424 R90
WINDOW 0 0 56 VBottom 2
WINDOW 3 32 56 VTop 2
SYMATTR InstName R1
SYMATTR Value 464k
SYMBOL res -1600 1328 R90
WINDOW 0 3 157 VBottom 2
WINDOW 3 32 56 VTop 2
SYMATTR InstName Rfreq_1
SYMATTR Value 39.2k
SYMBOL res -1552 1056 R0
SYMATTR InstName R2
SYMATTR Value 100k
SYMBOL voltage -2176 1440 R0
SYMATTR InstName V1
SYMATTR Value 1.25
SYMBOL nmos -816 1264 R0
WINDOW 0 -9 30 Right 2
WINDOW 3 36 105 Right 2
SYMATTR InstName Q2
SYMATTR Value BSC025N03MS
TEXT -2048 1856 Left 2 !.tran 2.5m startup
TEXT -2048 1824 Left 2 ;If simulation model is not found, please "Sync release".
TEXT -1656 656 Left 3 ;LTC3833 - Fast, High Efficiency Synchronous Buck Supply (DCR Sense Solution)
TEXT -2128 1152 Left 2 ;Note: Before simulation, set the Vrng Pin \nwith correct connection / voltage bias for \nsame current limit level as in LTpowerCAD \ndesign tool.
TEXT -1800 1856 Left 2 !.options ptrantau=0
