Version 4
SHEET 1 1764 680
WIRE 368 -608 224 -608
WIRE 480 -608 368 -608
WIRE 640 -608 480 -608
WIRE 224 -592 224 -608
WIRE 368 -592 368 -608
WIRE 640 -592 640 -608
WIRE 480 -528 480 -608
WIRE 496 -528 480 -528
WIRE 816 -528 784 -528
WIRE 928 -528 896 -528
WIRE 1072 -528 928 -528
WIRE 1232 -528 1072 -528
WIRE 1344 -528 1232 -528
WIRE 1488 -528 1344 -528
WIRE 368 -512 368 -528
WIRE 928 -512 928 -528
WIRE 1072 -512 1072 -528
WIRE 1232 -512 1232 -528
WIRE 1344 -512 1344 -528
WIRE 1488 -512 1488 -528
WIRE 304 -432 288 -432
WIRE 416 -432 368 -432
WIRE 496 -432 416 -432
WIRE 928 -432 784 -432
WIRE 1072 -432 1072 -448
WIRE 1072 -432 928 -432
WIRE 416 -416 416 -432
WIRE 928 -416 928 -432
WIRE 1072 -416 1072 -432
WIRE 1232 -416 1232 -448
WIRE 1344 -416 1344 -448
WIRE 1488 -416 1488 -432
WIRE 496 -336 480 -336
WIRE 928 -320 928 -336
WIRE 1072 -320 1072 -352
WIRE 416 -304 416 -336
WIRE 480 -304 480 -336
WIRE 480 -304 416 -304
WIRE 416 -288 416 -304
WIRE 592 -256 592 -272
WIRE 688 -256 688 -272
WIRE 416 -192 416 -208
FLAG 592 -256 0
FLAG 688 -256 0
FLAG 288 -432 0
FLAG 224 -512 0
FLAG 928 -320 0
FLAG 224 -608 IN
FLAG 1488 -528 OUT
FLAG 368 -512 0
FLAG 416 -192 0
FLAG 1488 -416 0
FLAG 1232 -416 0
FLAG 1344 -416 0
FLAG 1072 -320 0
SYMBOL LTC3624-2 640 -432 R0
SYMATTR InstName U1
SYMBOL cap 368 -448 R90
WINDOW 0 0 32 VBottom 2
WINDOW 3 32 32 VTop 2
SYMATTR InstName C1
SYMATTR Value 2.2µ
SYMBOL voltage 224 -608 R0
WINDOW 3 34 59 Left 2
WINDOW 123 0 0 Left 2
WINDOW 39 0 0 Left 2
WINDOW 0 42 35 Left 2
SYMATTR Value 3.3V
SYMATTR InstName Vin1
SYMBOL ind 800 -512 R270
WINDOW 0 32 56 VTop 2
WINDOW 3 5 56 VBottom 2
SYMATTR InstName Lo1
SYMATTR Value 0.47µ
SYMATTR SpiceLine Rser=12.7m
SYMBOL res 912 -528 R0
WINDOW 0 38 42 Left 2
WINDOW 3 32 70 Left 2
SYMATTR InstName RfbTop1
SYMATTR Value 619k
SYMBOL cap 1056 -512 R0
WINDOW 0 38 28 Left 2
WINDOW 3 30 54 Left 2
SYMATTR InstName CfbTop1
SYMATTR Value 15p
SYMBOL res 912 -432 R0
WINDOW 0 41 44 Left 2
WINDOW 3 37 71 Left 2
SYMATTR InstName RfbBot1
SYMATTR Value 619k
SYMBOL cap 1216 -512 R0
WINDOW 0 39 27 Left 2
WINDOW 3 29 51 Left 2
SYMATTR InstName Coc1
SYMATTR Value 44.523667µ
SYMATTR SpiceLine Rser=1.6m Lser=1.06n
SYMBOL cap 352 -592 R0
WINDOW 0 42 18 Left 2
WINDOW 3 34 42 Left 2
SYMATTR InstName Cinb1
SYMATTR Value 47µ
SYMBOL cap 1328 -512 R0
WINDOW 0 40 27 Left 2
WINDOW 3 32 50 Left 2
SYMATTR InstName Cob1
SYMATTR Value 47µ
SYMATTR SpiceLine Rser=25m Lser=1.4n
SYMBOL res 400 -432 R0
WINDOW 0 -36 60 Left 2
WINDOW 3 -70 87 Left 2
SYMATTR InstName R3
SYMATTR Value 1Meg
SYMBOL res 400 -304 R0
WINDOW 0 -36 45 Left 2
WINDOW 3 -65 71 Left 2
SYMATTR InstName R4
SYMATTR Value 1Meg
SYMBOL current 1488 -512 R0
WINDOW 3 24 80 Invisible 2
WINDOW 123 0 0 Left 2
WINDOW 39 0 0 Left 2
SYMATTR Value PWL(0 0 2.600m 0 2.602m 1 2.800m 1 2.802m 0)
SYMATTR InstName I1
SYMBOL cap 1056 -416 R0
WINDOW 0 37 31 Left 2
WINDOW 3 28 57 Left 2
SYMATTR InstName CfbBot1
SYMATTR Value 0p
TEXT 920 -272 Left 2 !.tran 3.0m startup
TEXT 232 -152 Left 2 ; If simulation model is not found, please "Sync Release".
TEXT 232 -704 Left 2 ;LTC3624-2 (2.25MHz , Adjustable Vout) :17V, 2A Synchronous Step-Down Regulator with 3.5uA Quiescent Current
